 namoptions.047                                    
 &RUN
 IEXPNR  =          47,
 LWARMSTART      = F,
 STARTFILE       = initd06h00m000.001                                ,
 LTOTRUNTIME     = F,
 RUNTIME =   43200.0000000000     ,
 DTMAX   =   1.00000000000000     ,
 WCTIME  =   8640000.00000000     ,
 DTAV_GLOB       =   60.0000000000000     ,
 TIMEAV_GLOB     =   300.000000000000     ,
 TRESTART        =   50000.0000000000     ,
 IRANDOM =          43,
 RANDTHL =  0.100000000000000     ,
 RANDQT  =  2.500000000000000E-005,
 KRAND   =  2147483647,
 NSV     =          21,
 COURANT =   1.00000000000000     ,
 PECLET  =  0.150000000000000     ,
 LADAPTIVE       = T,
 AUTHOR  =                                                                                 ,
 KRANDUMIN       =           1,
 KRANDUMAX       =           0,
 RANDU   =  0.500000000000000     ,
 NPROCX  =          36,
 NPROCY  =          36
 /
 &DOMAIN
 ITOT    =         360,
 JTOT    =         360,
 KMAX    =         200,
 XSIZE   =   19080.0000000000     ,
 YSIZE   =   19080.0000000000     ,
 XLAT    =  -2.60910000000000     ,
 XLON    =  -60.2093000000000     ,
 XDAY    =   253.000000000000     ,
 XTIME   =   10.0000000000000     ,
 KSP     =          -1
 /
 &PHYSICS
 Z0      =  3.500000000000000E-002,
 USTIN   =  0.100000000000000     ,
 WTSURF  =  0.100000000000000     ,
 WQSURF  =  0.000000000000000E+000,
 WSVSURF =  1.000000000000000E-002, 2*0.000000000000000E+000  ,  5.000000000000000E-004, 5*0.000000000000000E+000  ,
   0.325000000000000     , 90*0.000000000000000E+000  ,
 PS      =   100000.000000000     ,
 THLS    =   299.000000000000     ,
 LMOIST  = T,
 ISURF   =           1,
 CHI_HALF        =  0.500000000000000     ,
 LCORIOL = T,
 LPRESSGRAD      = T,
 IGRW_DAMP       =           2,
 GEODAMPTIME     =   7200.00000000000     ,
 LMOMSUBS        = F,
 LTIMEDEP        = F,
 LTIMEDEPSV      = F,
 IRAD    =          -1,
 TIMERAD =  0.000000000000000E+000,
 IRADIATION      =           4,
 RAD_LS  = T,
 RAD_LONGW       = T,
 RAD_SHORTW      = T,
 RAD_SMOKE       = F,
 USEMCICA        = T,
 RKA     =   130.000000000000     ,
 DLWTOP  =   74.0000000000000     ,
 DLWBOT  =  0.000000000000000E+000,
 SW0     =   1367.00000000000     ,
 GC      =  0.850000000000000     ,
 REFF    =  1.000000000000000E-005,
 ISVSMOKE        =           1,
 LFORCE_USER     = F,
 LCLOUDSHADING   = T,
 LRIGIDLID       = F,
 UNUDGE  =   1.00000000000000     
 /
 &DYNAMICS
 LLSADV  = F,
 LQLNR   = F,
 LAMBDA_CRIT     =   100.000000000000     ,
 CU      =  -7.00000000000000     ,
 CV      =  -1.00000000000000     ,
 IBAS_PRF        =           3,
 IADV_MOM        =          52,
 IADV_TKE        =          52,
 IADV_THL        =          52,
 IADV_QT =          52,
 IADV_SV = 100*7,
 LNOCLOUDS       = F
 /
 myid, myidx, myidy, n, e, s, w =          307           8          19
         308         343         306         271
 myid, myidx, myidy, n, e, s, w =         1162          32          10
        1163        1198        1161        1126
 myid, myidx, myidy, n, e, s, w =         1290          35          30
        1291          30        1289        1254
 myid, myidx, myidy, n, e, s, w =          621          17           9
         622         657         620         585
 myid, myidx, myidy, n, e, s, w =         1066          29          22
        1067        1102        1065        1030
 myid, myidx, myidy, n, e, s, w =         1037          28          29
        1038        1073        1036        1001
 myid, myidx, myidy, n, e, s, w =           51           1          15
          52          87          50          15
 myid, myidx, myidy, n, e, s, w =          124           3          16
         125         160         123          88
 myid, myidx, myidy, n, e, s, w =          937          26           1
         938         973         936         901
 myid, myidx, myidy, n, e, s, w =           11           0          11
          12          47          10        1271
 myid, myidx, myidy, n, e, s, w =          308           8          20
         309         344         307         272
 myid, myidx, myidy, n, e, s, w =          488          13          20
         489         524         487         452
 myid, myidx, myidy, n, e, s, w =          681          18          33
         682         717         680         645
 myid, myidx, myidy, n, e, s, w =         1209          33          21
        1210        1245        1208        1173
 myid, myidx, myidy, n, e, s, w =          744          20          24
         745         780         743         708
 myid, myidx, myidy, n, e, s, w =          628          17          16
         629         664         627         592
 myid, myidx, myidy, n, e, s, w =         1173          32          21
        1174        1209        1172        1137
 myid, myidx, myidy, n, e, s, w =          245           6          29
         246         281         244         209
 myid, myidx, myidy, n, e, s, w =          872          24           8
         873         908         871         836
 myid, myidx, myidy, n, e, s, w =          650          18           2
         651         686         649         614
 myid, myidx, myidy, n, e, s, w =          457          12          25
         458         493         456         421
 myid, myidx, myidy, n, e, s, w =           26           0          26
          27          62          25        1286
 myid, myidx, myidy, n, e, s, w =          173           4          29
         174         209         172         137
 myid, myidx, myidy, n, e, s, w =          996          27          24
         997        1032         995         960
 myid, myidx, myidy, n, e, s, w =           93           2          21
          94         129          92          57
 myid, myidx, myidy, n, e, s, w =          553          15          13
         554         589         552         517
 myid, myidx, myidy, n, e, s, w =          312           8          24
         313         348         311         276
 myid, myidx, myidy, n, e, s, w =         1142          31          26
        1143        1178        1141        1106
 myid, myidx, myidy, n, e, s, w =          412          11          16
         413         448         411         376
 myid, myidx, myidy, n, e, s, w =          506          14           2
         507         542         505         470
 myid, myidx, myidy, n, e, s, w =          370          10          10
         371         406         369         334
 myid, myidx, myidy, n, e, s, w =         1081          30           1
        1082        1117        1080        1045
 myid, myidx, myidy, n, e, s, w =         1225          34           1
        1226        1261        1224        1189
 myid, myidx, myidy, n, e, s, w =          144           4           0
         145         180         179         108
 myid, myidx, myidy, n, e, s, w =          531          14          27
         532         567         530         495
 myid, myidx, myidy, n, e, s, w =          969          26          33
         970        1005         968         933
 myid, myidx, myidy, n, e, s, w =          109           3           1
         110         145         108          73
 myid, myidx, myidy, n, e, s, w =          772          21          16
         773         808         771         736
 myid, myidx, myidy, n, e, s, w =            2           0           2
           3          38           1        1262
 myid, myidx, myidy, n, e, s, w =          301           8          13
         302         337         300         265
 myid, myidx, myidy, n, e, s, w =          600          16          24
         601         636         599         564
 myid, myidx, myidy, n, e, s, w =            3           0           3
           4          39           2        1263
 myid, myidx, myidy, n, e, s, w =         1252          34          28
        1253        1288        1251        1216
 myid, myidx, myidy, n, e, s, w =          288           8           0
         289         324         323         252
 myid, myidx, myidy, n, e, s, w =          489          13          21
         490         525         488         453
 myid, myidx, myidy, n, e, s, w =          685          19           1
         686         721         684         649
 myid, myidx, myidy, n, e, s, w =         1210          33          22
        1211        1246        1209        1174
 myid, myidx, myidy, n, e, s, w =          336           9          12
         337         372         335         300
 myid, myidx, myidy, n, e, s, w =          388          10          28
         389         424         387         352
 myid, myidx, myidy, n, e, s, w =          745          20          25
         746         781         744         709
 myid, myidx, myidy, n, e, s, w =          916          25          16
         917         952         915         880
 myid, myidx, myidy, n, e, s, w =          630          17          18
         631         666         629         594
 myid, myidx, myidy, n, e, s, w =         1156          32           4
        1157        1192        1155        1120
 myid, myidx, myidy, n, e, s, w =          253           7           1
         254         289         252         217
 myid, myidx, myidy, n, e, s, w =          205           5          25
         206         241         204         169
 myid, myidx, myidy, n, e, s, w =          661          18          13
         662         697         660         625
 myid, myidx, myidy, n, e, s, w =          793          22           1
         794         829         792         757
 myid, myidx, myidy, n, e, s, w =          461          12          29
         462         497         460         425
 myid, myidx, myidy, n, e, s, w =          232           6          16
         233         268         231         196
 myid, myidx, myidy, n, e, s, w =           44           1           8
          45          80          43           8
 myid, myidx, myidy, n, e, s, w =          168           4          24
         169         204         167         132
 myid, myidx, myidy, n, e, s, w =          728          20           8
         729         764         727         692
 myid, myidx, myidy, n, e, s, w =          998          27          26
         999        1034         997         962
 myid, myidx, myidy, n, e, s, w =           77           2           5
          78         113          76          41
 myid, myidx, myidy, n, e, s, w =         1176          32          24
        1177        1212        1175        1140
 myid, myidx, myidy, n, e, s, w =          264           7          12
         265         300         263         228
 myid, myidx, myidy, n, e, s, w =          554          15          14
         555         590         553         518
 myid, myidx, myidy, n, e, s, w =         1274          35          14
        1275          14        1273        1238
 myid, myidx, myidy, n, e, s, w =         1130          31          14
        1131        1166        1129        1094
 myid, myidx, myidy, n, e, s, w =          602          16          26
         603         638         601         566
 myid, myidx, myidy, n, e, s, w =          413          11          17
         414         449         412         377
 myid, myidx, myidy, n, e, s, w =          507          14           3
         508         543         506         471
 myid, myidx, myidy, n, e, s, w =          371          10          11
         372         407         370         335
 myid, myidx, myidy, n, e, s, w =          582          16           6
         583         618         581         546
 myid, myidx, myidy, n, e, s, w =         1012          28           4
        1013        1048        1011         976
 myid, myidx, myidy, n, e, s, w =         1105          30          25
        1106        1141        1104        1069
 myid, myidx, myidy, n, e, s, w =         1068          29          24
        1069        1104        1067        1032
 myid, myidx, myidy, n, e, s, w =         1045          29           1
        1046        1081        1044        1009
 myid, myidx, myidy, n, e, s, w =         1229          34           5
        1230        1265        1228        1193
 myid, myidx, myidy, n, e, s, w =          433          12           1
         434         469         432         397
 myid, myidx, myidy, n, e, s, w =          156           4          12
         157         192         155         120
 myid, myidx, myidy, n, e, s, w =          532          14          28
         533         568         531         496
 myid, myidx, myidy, n, e, s, w =           56           1          20
          57          92          55          20
 myid, myidx, myidy, n, e, s, w =          697          19          13
         698         733         696         661
 myid, myidx, myidy, n, e, s, w =          125           3          17
         126         161         124          89
 myid, myidx, myidy, n, e, s, w =          116           3           8
         117         152         115          80
 myid, myidx, myidy, n, e, s, w =          889          24          25
         890         925         888         853
 myid, myidx, myidy, n, e, s, w =          841          23          13
         842         877         840         805
 myid, myidx, myidy, n, e, s, w =          818          22          26
         819         854         817         782
 myid, myidx, myidy, n, e, s, w =            4           0           4
           5          40           3        1264
 myid, myidx, myidy, n, e, s, w =         1256          34          32
 myid, myidx, myidy, n, e, s, w =          289           8           1
         290         325         288         253
 myid, myidx, myidy, n, e, s, w =          498          13          30
         499         534         497         462
 myid, myidx, myidy, n, e, s, w =          678          18          30
         679         714         677         642
 myid, myidx, myidy, n, e, s, w =         1211          33          23
        1212        1247        1210        1175
 myid, myidx, myidy, n, e, s, w =          341           9          17
         342         377         340         305
 myid, myidx, myidy, n, e, s, w =          389          10          29
         390         425         388         353
 myid, myidx, myidy, n, e, s, w =          746          20          26
         747         782         745         710
 myid, myidx, myidy, n, e, s, w =          917          25          17
         918         953         916         881
 myid, myidx, myidy, n, e, s, w =          644          17          32
         645         680         643         608
 myid, myidx, myidy, n, e, s, w =         1161          32           9
        1162        1197        1160        1125
 myid, myidx, myidy, n, e, s, w =          243           6          27
         244         279         242         207
 myid, myidx, myidy, n, e, s, w =          874          24          10
         875         910         873         838
 myid, myidx, myidy, n, e, s, w =          195           5          15
         196         231         194         159
 myid, myidx, myidy, n, e, s, w =          665          18          17
         666         701         664         629
 myid, myidx, myidy, n, e, s, w =          794          22           2
         795         830         793         758
 myid, myidx, myidy, n, e, s, w =          469          13           1
         470         505         468         433
 myid, myidx, myidy, n, e, s, w =          233           6          17
         234         269         232         197
 myid, myidx, myidy, n, e, s, w =           25           0          25
          26          61          24        1285
 myid, myidx, myidy, n, e, s, w =          172           4          28
         173         208         171         136
 myid, myidx, myidy, n, e, s, w =          729          20           9
         730         765         728         693
 myid, myidx, myidy, n, e, s, w =         1000          27          28
        1001        1036         999         964
 myid, myidx, myidy, n, e, s, w =           82           2          10
          83         118          81          46
 myid, myidx, myidy, n, e, s, w =         1177          32          25
        1178        1213        1176        1141
 myid, myidx, myidy, n, e, s, w =          267           7          15
         268         303         266         231
 myid, myidx, myidy, n, e, s, w =          556          15          16
         557         592         555         520
 myid, myidx, myidy, n, e, s, w =         1284          35          24
        1285          24        1283        1248
 myid, myidx, myidy, n, e, s, w =          315           8          27
         316         351         314         279
 myid, myidx, myidy, n, e, s, w =         1140          31          24
        1141        1176        1139        1104
 myid, myidx, myidy, n, e, s, w =          601          16          25
         602         637         600         565
 myid, myidx, myidy, n, e, s, w =          425          11          29
         426         461         424         389
 myid, myidx, myidy, n, e, s, w =          522          14          18
         523         558         521         486
 myid, myidx, myidy, n, e, s, w =          372          10          12
         373         408         371         336
 myid, myidx, myidy, n, e, s, w =          585          16           9
         586         621         584         549
 myid, myidx, myidy, n, e, s, w =         1013          28           5
        1014        1049        1012         977
 myid, myidx, myidy, n, e, s, w =         1108          30          28
        1109        1144        1107        1072
 myid, myidx, myidy, n, e, s, w =         1059          29          15
        1060        1095        1058        1023
 myid, myidx, myidy, n, e, s, w =         1082          30           2
        1083        1118        1081        1046
 myid, myidx, myidy, n, e, s, w =         1049          29           5
        1050        1085        1048        1013
 myid, myidx, myidy, n, e, s, w =         1242          34          18
        1243        1278        1241        1206
 myid, myidx, myidy, n, e, s, w =          437          12           5
         438         473         436         401
 myid, myidx, myidy, n, e, s, w =          145           4           1
         146         181         144         109
 myid, myidx, myidy, n, e, s, w =          533          14          29
         534         569         532         497
 myid, myidx, myidy, n, e, s, w =           60           1          24
          61          96          59          24
 myid, myidx, myidy, n, e, s, w =          973          27           1
         974        1009         972         937
 myid, myidx, myidy, n, e, s, w =          698          19          14
         699         734         697         662
 myid, myidx, myidy, n, e, s, w =          139           3          31
         140         175         138         103
 myid, myidx, myidy, n, e, s, w =          117           3           9
         118         153         116          81
 myid, myidx, myidy, n, e, s, w =            5           0           5
           6          41           4        1265
 myid, myidx, myidy, n, e, s, w =         1260          35           0
        1261           0        1295        1224
 myid, myidx, myidy, n, e, s, w =          290           8           2
         291         326         289         254
 myid, myidx, myidy, n, e, s, w =          499          13          31
         500         535         498         463
 myid, myidx, myidy, n, e, s, w =          686          19           2
         687         722         685         650
 myid, myidx, myidy, n, e, s, w =         1222          33          34
        1223        1258        1221        1186
 myid, myidx, myidy, n, e, s, w =          342           9          18
         343         378         341         306
 myid, myidx, myidy, n, e, s, w =          393          10          33
         394         429         392         357
 myid, myidx, myidy, n, e, s, w =          749          20          29
         750         785         748         713
 myid, myidx, myidy, n, e, s, w =          921          25          21
         922         957         920         885
 myid, myidx, myidy, n, e, s, w =          626          17          14
         627         662         625         590
 myid, myidx, myidy, n, e, s, w =         1166          32          14
        1167        1202        1165        1130
 myid, myidx, myidy, n, e, s, w =          244           6          28
         245         280         243         208
 myid, myidx, myidy, n, e, s, w =          876          24          12
         877         912         875         840
 myid, myidx, myidy, n, e, s, w =          197           5          17
         198         233         196         161
 myid, myidx, myidy, n, e, s, w =          666          18          18
         667         702         665         630
 myid, myidx, myidy, n, e, s, w =          796          22           4
         797         832         795         760
 myid, myidx, myidy, n, e, s, w =          476          13           8
         477         512         475         440
 myid, myidx, myidy, n, e, s, w =          237           6          21
         238         273         236         201
 myid, myidx, myidy, n, e, s, w =           45           1           9
          46          81          44           9
 myid, myidx, myidy, n, e, s, w =          179           4          35
         144         215         178         143
 myid, myidx, myidy, n, e, s, w =          730          20          10
 myid, myidx, myidy, n, e, s, w =         1004          27          32
        1005        1040        1003         968
 myid, myidx, myidy, n, e, s, w =           87           2          15
          88         123          86          51
 myid, myidx, myidy, n, e, s, w =         1178          32          26
        1179        1214        1177        1142
 myid, myidx, myidy, n, e, s, w =          275           7          23
         276         311         274         239
 myid, myidx, myidy, n, e, s, w =          574          15          34
         575         610         573         538
 myid, myidx, myidy, n, e, s, w =         1275          35          15
        1276          15        1274        1239
 myid, myidx, myidy, n, e, s, w =          328           9           4
         329         364         327         292
 myid, myidx, myidy, n, e, s, w =         1141          31          25
        1142        1177        1140        1105
 myid, myidx, myidy, n, e, s, w =          614          17           2
         615         650         613         578
 myid, myidx, myidy, n, e, s, w =          428          11          32
         429         464         427         392
 myid, myidx, myidy, n, e, s, w =          514          14          10
         515         550         513         478
 myid, myidx, myidy, n, e, s, w =          373          10          13
         374         409         372         337
 myid, myidx, myidy, n, e, s, w =          587          16          11
         588         623         586         551
 myid, myidx, myidy, n, e, s, w =         1017          28           9
        1018        1053        1016         981
 myid, myidx, myidy, n, e, s, w =         1109          30          29
        1110        1145        1108        1073
 myid, myidx, myidy, n, e, s, w =         1075          29          31
        1076        1111        1074        1039
 myid, myidx, myidy, n, e, s, w =         1085          30           5
        1086        1121        1084        1049
 myid, myidx, myidy, n, e, s, w =         1050          29           6
        1051        1086        1049        1014
 myid, myidx, myidy, n, e, s, w =         1246          34          22
        1247        1282        1245        1210
 myid, myidx, myidy, n, e, s, w =          441          12           9
         442         477         440         405
 myid, myidx, myidy, n, e, s, w =          148           4           4
         149         184         147         112
 myid, myidx, myidy, n, e, s, w =          539          14          35
         504         575         538         503
 myid, myidx, myidy, n, e, s, w =           61           1          25
          62          97          60          25
 myid, myidx, myidy, n, e, s, w =          966          26          30
         967        1002         965         930
 myid, myidx, myidy, n, e, s, w =          702          19          18
         703         738         701         666
 myid, myidx, myidy, n, e, s, w =          123           3          15
         124         159         122          87
 myid, myidx, myidy, n, e, s, w =          105           2          33
         106         141         104          69
 myid, myidx, myidy, n, e, s, w =            6           0           6
           7          42           5        1266
 myid, myidx, myidy, n, e, s, w =         1261          35           1
        1262           1        1260        1225
 myid, myidx, myidy, n, e, s, w =          294           8           6
         295         330         293         258
 myid, myidx, myidy, n, e, s, w =          492          13          24
         493         528         491         456
 myid, myidx, myidy, n, e, s, w =          690          19           6
         691         726         689         654
 myid, myidx, myidy, n, e, s, w =         1213          33          25
        1214        1249        1212        1177
 myid, myidx, myidy, n, e, s, w =          343           9          19
         344         379         342         307
 myid, myidx, myidy, n, e, s, w =          396          11           0
         397         432         431         360
 myid, myidx, myidy, n, e, s, w =          753          20          33
         754         789         752         717
 myid, myidx, myidy, n, e, s, w =          922          25          22
         923         958         921         886
 myid, myidx, myidy, n, e, s, w =          629          17          17
         630         665         628         593
 myid, myidx, myidy, n, e, s, w =         1158          32           6
        1159        1194        1157        1122
 myid, myidx, myidy, n, e, s, w =          247           6          31
         248         283         246         211
 myid, myidx, myidy, n, e, s, w =          877          24          13
         878         913         876         841
 myid, myidx, myidy, n, e, s, w =          210           5          30
         211         246         209         174
 myid, myidx, myidy, n, e, s, w =          668          18          20
         669         704         667         632
 myid, myidx, myidy, n, e, s, w =          804          22          12
         805         840         803         768
 myid, myidx, myidy, n, e, s, w =          456          12          24
         457         492         455         420
 myid, myidx, myidy, n, e, s, w =          236           6          20
         237         272         235         200
 myid, myidx, myidy, n, e, s, w =           24           0          24
          25          60          23        1284
 myid, myidx, myidy, n, e, s, w =          180           5           0
         181         216         215         144
 myid, myidx, myidy, n, e, s, w =          732          20          12
         733         768         731         696
 myid, myidx, myidy, n, e, s, w =         1005          27          33
        1006        1041        1004         969
 myid, myidx, myidy, n, e, s, w =           88           2          16
          89         124          87          52
 myid, myidx, myidy, n, e, s, w =         1180          32          28
        1181        1216        1179        1144
 myid, myidx, myidy, n, e, s, w =          283           7          31
         284         319         282         247
 myid, myidx, myidy, n, e, s, w =          552          15          12
         553         588         551         516
 myid, myidx, myidy, n, e, s, w =         1286          35          26
        1287          26        1285        1250
 myid, myidx, myidy, n, e, s, w =          329           9           5
         330         365         328         293
 myid, myidx, myidy, n, e, s, w =         1145          31          29
        1146        1181        1144        1109
 myid, myidx, myidy, n, e, s, w =          618          17           6
         619         654         617         582
 myid, myidx, myidy, n, e, s, w =          408          11          12
         409         444         407         372
 myid, myidx, myidy, n, e, s, w =          520          14          16
         521         556         519         484
 myid, myidx, myidy, n, e, s, w =          378          10          18
         379         414         377         342
 myid, myidx, myidy, n, e, s, w =          589          16          13
         590         625         588         553
 myid, myidx, myidy, n, e, s, w =         1018          28          10
        1019        1054        1017         982
 myid, myidx, myidy, n, e, s, w =         1112          30          32
        1113        1148        1111        1076
 myid, myidx, myidy, n, e, s, w =         1056          29          12
        1057        1092        1055        1020
 myid, myidx, myidy, n, e, s, w =         1086          30           6
        1087        1122        1085        1050
 myid, myidx, myidy, n, e, s, w =         1053          29           9
        1054        1089        1052        1017